/*--------------------------------*- C++ -*----------------------------------*\
  =========                 |
  \\      /  F ield         | OpenFOAM: The Open Source CFD Toolbox
   \\    /   O peration     | Website:  https://openfoam.org
    \\  /    A nd           | Version:  10
     \\/     M anipulation  |
\*---------------------------------------------------------------------------*/
FoamFile
{
    format      ascii;
    class       volVectorField;
    location    "0";
    object      UMean;
}
// * * * * * * * * * * * * * * * * * * * * * * * * * * * * * * * * * * * * * //

dimensions      [0 1 -1 0 0 0 0];

internalField   uniform (0.875 0 0);

boundaryField
{
    out
    {
        type            calculated;
        value           uniform (1 0 0);
    }
    in
    {
        type            calculated;
        value           uniform (1 0 0);
    }
    cylinder
    {
        type            calculated;
        value           uniform (0 0 0);
    }
    sym1
    {
        type            calculated;
        value           uniform (0 0 0);
    }
    sym2
    {
        type            calculated;
        value           uniform (0 0 0);
    }
    back
    {
        type            empty;
    }
    front
    {
        type            empty;
    }
}


// ************************************************************************* //
